<routes>
    <route id="r_0" edges="-536748217#33 -536748217#32 -536748217#31 -536748217#30 -536748217#29 -536748217#28 -536748217#27 -536748217#26 -536748217#25 -536748217#24 -536748217#23 -536748217#22 -536748217#21 -536748217#20 -536748217#19 -536748217#18 -536748217#17 -536748217#16 -536748217#15 -536748217#14 -536748217#13 -536748217#12 -536748217#11 -536748217#10 -536748217#9 -536748217#8 -536748217#7 -536748217#6 -536748217#5 -536748217#4 -536748217#3 -536748217#2 -536748217#1 -536748217#0 -536748214 -239881928#6 -239881928#5 -239881928#4 -239881928#3 -239881928#2 -239881928#1 -239881928#0"/>
    <vType id="bus" vClass="bus" guiShape="bus" speedFactor="norm(1.5,0.1)" sigma="0.8" carFollowModel="IDM" collisionAction="remove" emergencyDecel="0.5" collisionMinGapFactor="0.1" tau="3.0"/>
    <flow id="bus_flow" type="bus" route="r_0" begin="0" end="98" number="50"/>
</routes>